%mem=4GB
%nprocshared=4
%chk=model_H2b.chk
# opt=z-matrix 6-311++g(d,p) m062x

test

0 1
 C              
 C                  1            B1
 C                  2            B2    1  120.00000011
 C                  3            B3    2  120.00000000    1    0.00000000    0
 C                  4            B4    3  119.99999989    2    0.00000000    0
 C                  1            B5    2  119.97770821    3    1.71722694    0
 F                  1            B6    2  119.99999990    3 -180.00000000    0
 H                  2            B7    1  120.00000011    6 -178.28277306    0
 H                  3            B8    2  120.00000011    1  180.00000000    0
 H                  4            B9    3  120.00000000    2  180.00000000    0
 H                  5           B10    4  120.00000011    3  180.00000000    0
 H                  6           B11    1  119.91553063    2 -177.77151684    0
 O                  1           B12    2  119.99999990    3 -180.00000000    0
 C                 13           B13    1  179.90000005    2  180.00000000    0
 H                 14           B14   13  119.99996989    1  -90.04490481    0
 H                 14           B15   13  119.99996989    1   90.04490481    0
 H                  7           B16    1  100.00000001    2   90.00000000    0
 N                 17           B17    7  179.90000000    1   90.00000000    0
 C                 18           B18   17  119.50000000    7    0.00000000    0
 O                 19           B19   18  123.20000000   17 -180.00000000    0
 C                 18           B20   17  121.90000000   19 -180.00000000    0
 H                 21           B21   18  110.70000000   17 -180.00000000    0
 H                 21           B22   18  110.70000000   17  -60.00000000    0
 H                 21           B23   18  110.70000000   17   60.00000000    0
 H                 19           B24   18  113.46721803   17    0.00000000    0
 H                  7           B25    1  100.00000001    2  -90.00000000    0
 N                 26           B26    7  179.90000000    1  -90.00000000    0
 C                 27           B27   26  119.50000000    7  180.00000000    0
 O                 28           B28   27  123.20000000   26 -180.00000000    0
 C                 27           B29   26  121.90000000   28 -180.00000000    0
 H                 30           B30   27  110.70000000   26  180.00000000    0
 H                 30           B31   27  110.70000000   26  -60.00000000    0
 H                 30           B32   27  110.70000000   26   60.00000000    0
 H                 28           B33   27  113.46721803   26    0.00000000    0

   B1             1.30000000
   B2             1.30000000
   B3             1.30000000
   B4             1.30000000
   B5             1.30000000
   B6             1.40000000
   B7             1.00000000
   B8             1.00000000
   B9             1.00000000
   B10            1.00000000
   B11            1.00100706
   B12            4.20000000
   B13            1.19999999
   B14            1.00000000
   B15            1.00000000
   B16            2.12000000
   B17            1.00000000
   B18            1.33000000
   B19            1.23000000
   B20            1.45000000
   B21            1.00000000
   B22            1.00000000
   B23            1.00000000
   B24            1.00000000
   B25            2.12000000
   B26            1.00000000
   B27            1.33000000
   B28            1.23000000
   B29            1.45000000
   B30            1.00000000
   B31            1.00000000
   B32            1.00000000
   B33            1.00000000

