%mem=2GB
%nproc=2
%chk=model_H1
# m062x 6-311++G(d,p) opt=z-matrix 

test

0 1
C1
C2  1  d1
C3  2  d2  1  120.0
C4  3  d3  2  120.0  1  0.0
C5  4  d4  3  120.0  2  0.0
C6  5  d5  4  120.0  3  0.0
F7  1  d6  2  120.0  3  180.0
H8  2  d7  3  120.0  4  180.0
H9  3  d8  4  120.0  5  180.0
H10  4  d9  5  120.0  6  180.0
H11  5  d10  6  120.0  1  180.0
H12  6  d11  1  120.0  2  180.0
O13  7  d12  1  179.9 3  180.0
C14  13  d13  1  179.9  2  180.0
H15  14  d14  1  120.0  2   90.0
H16  14  d15  1  120.0  2  -90.0
H17  7   d16  1  100.0  2   90.0
F18   17   d17  7  160.0  1   0.0

d1=1.3
d2=1.3
d3=1.3
d4=1.3
d5=1.3
d6=1.4
d7=1.0
d8=1.0
d9=1.0
d10=1.0
d11=1.0  
d12=2.8
d13=1.2
d14=1.0
d15=1.0
d16=2.3
d17=0.9


